**************************************************
* OpenRAM generated memory.
* Words: 512
* Data bits: 8
* Banks: 1
* Column mux: 8:1
**************************************************
* File: DFFPOSX1.pex.netlist
* Created: Wed Jan  2 18:36:24 2008
* Program "Calibre xRC"
* Version "v2007.2_34.24"
*
.subckt dff D Q clk vdd gnd
*
MM21 Q a_66_6# gnd gnd NMOS_VTG L=5e-08 W=5e-07
MM19 a_76_6# a_2_6# a_66_6# gnd NMOS_VTG L=5e-08 W=2.5e-07
MM20 gnd Q a_76_6# gnd NMOS_VTG L=5e-08 W=2.5e-07
MM18 a_66_6# clk a_61_6# gnd NMOS_VTG L=5e-08 W=2.5e-07
MM17 a_61_6# a_34_4# gnd gnd NMOS_VTG L=5e-08 W=2.5e-07
MM10 gnd clk a_2_6# gnd NMOS_VTG L=5e-08 W=5e-07
MM16 a_34_4# a_22_6# gnd gnd NMOS_VTG L=5e-08 W=2.5e-07
MM15 gnd a_34_4# a_31_6# gnd NMOS_VTG L=5e-08 W=2.5e-07
MM14 a_31_6# clk a_22_6# gnd NMOS_VTG L=5e-08 W=2.5e-07
MM13 a_22_6# a_2_6# a_17_6# gnd NMOS_VTG L=5e-08 W=2.5e-07
MM12 a_17_6# D gnd gnd NMOS_VTG L=5e-08 W=2.5e-07
MM11 Q a_66_6# vdd vdd PMOS_VTG L=5e-08 W=1e-06
MM9 vdd Q a_76_84# vdd PMOS_VTG L=5e-08 W=2.5e-07
MM8 a_76_84# clk a_66_6# vdd PMOS_VTG L=5e-08 W=2.5e-07
MM7 a_66_6# a_2_6# a_61_74# vdd PMOS_VTG L=5e-08 W=5e-07
MM6 a_61_74# a_34_4# vdd vdd PMOS_VTG L=5e-08 W=5e-07
MM0 vdd clk a_2_6# vdd PMOS_VTG L=5e-08 W=1e-06
MM5 a_34_4# a_22_6# vdd vdd PMOS_VTG L=5e-08 W=5e-07
MM4 vdd a_34_4# a_31_74# vdd PMOS_VTG L=5e-08 W=5e-07
MM3 a_31_74# a_2_6# a_22_6# vdd PMOS_VTG L=5e-08 W=5e-07
MM2 a_22_6# clk a_17_74# vdd PMOS_VTG L=5e-08 W=5e-07
MM1 a_17_74# D vdd vdd PMOS_VTG L=5e-08 W=5e-07
* c_9 a_66_6# 0 0.271997f
* c_20 clk 0 0.350944f
* c_27 Q 0 0.202617f
* c_32 a_76_84# 0 0.0210573f
* c_38 a_76_6# 0 0.0204911f
* c_45 a_34_4# 0 0.172306f
* c_55 a_2_6# 0 0.283119f
* c_59 a_22_6# 0 0.157312f
* c_64 D 0 0.0816386f
* c_73 gnd 0 0.254131f
* c_81 vdd 0 0.23624f
*
*.include "dff.pex.netlist.dff.pxi"
*
.ends
*
*

.SUBCKT row_addr_dff din_0 din_1 din_2 din_3 din_4 din_5 dout_0 dout_1 dout_2 dout_3 dout_4 dout_5 clk vdd gnd
* INPUT : din_0 
* INPUT : din_1 
* INPUT : din_2 
* INPUT : din_3 
* INPUT : din_4 
* INPUT : din_5 
* OUTPUT: dout_0 
* OUTPUT: dout_1 
* OUTPUT: dout_2 
* OUTPUT: dout_3 
* OUTPUT: dout_4 
* OUTPUT: dout_5 
* INPUT : clk 
* POWER : vdd 
* GROUND: gnd 
* rows: 6 cols: 1
Xdff_r0_c0 din_0 dout_0 clk vdd gnd dff
Xdff_r1_c0 din_1 dout_1 clk vdd gnd dff
Xdff_r2_c0 din_2 dout_2 clk vdd gnd dff
Xdff_r3_c0 din_3 dout_3 clk vdd gnd dff
Xdff_r4_c0 din_4 dout_4 clk vdd gnd dff
Xdff_r5_c0 din_5 dout_5 clk vdd gnd dff
.ENDS row_addr_dff

.SUBCKT col_addr_dff din_0 din_1 din_2 dout_0 dout_1 dout_2 clk vdd gnd
* INPUT : din_0 
* INPUT : din_1 
* INPUT : din_2 
* OUTPUT: dout_0 
* OUTPUT: dout_1 
* OUTPUT: dout_2 
* INPUT : clk 
* POWER : vdd 
* GROUND: gnd 
* rows: 1 cols: 3
Xdff_r0_c0 din_0 dout_0 clk vdd gnd dff
Xdff_r0_c1 din_1 dout_1 clk vdd gnd dff
Xdff_r0_c2 din_2 dout_2 clk vdd gnd dff
.ENDS col_addr_dff

.SUBCKT data_dff din_0 din_1 din_2 din_3 din_4 din_5 din_6 din_7 dout_0 dout_1 dout_2 dout_3 dout_4 dout_5 dout_6 dout_7 clk vdd gnd
* INPUT : din_0 
* INPUT : din_1 
* INPUT : din_2 
* INPUT : din_3 
* INPUT : din_4 
* INPUT : din_5 
* INPUT : din_6 
* INPUT : din_7 
* OUTPUT: dout_0 
* OUTPUT: dout_1 
* OUTPUT: dout_2 
* OUTPUT: dout_3 
* OUTPUT: dout_4 
* OUTPUT: dout_5 
* OUTPUT: dout_6 
* OUTPUT: dout_7 
* INPUT : clk 
* POWER : vdd 
* GROUND: gnd 
* rows: 1 cols: 8
Xdff_r0_c0 din_0 dout_0 clk vdd gnd dff
Xdff_r0_c1 din_1 dout_1 clk vdd gnd dff
Xdff_r0_c2 din_2 dout_2 clk vdd gnd dff
Xdff_r0_c3 din_3 dout_3 clk vdd gnd dff
Xdff_r0_c4 din_4 dout_4 clk vdd gnd dff
Xdff_r0_c5 din_5 dout_5 clk vdd gnd dff
Xdff_r0_c6 din_6 dout_6 clk vdd gnd dff
Xdff_r0_c7 din_7 dout_7 clk vdd gnd dff
.ENDS data_dff

* ptx M{0} {1} pmos_vtg m=1 w=0.27u l=0.05u pd=0.64u ps=0.64u as=0.03p ad=0.03p

.SUBCKT precharge_0 bl br en_bar vdd
* OUTPUT: bl 
* OUTPUT: br 
* INPUT : en_bar 
* POWER : vdd 
Mlower_pmos bl en_bar br vdd pmos_vtg m=1 w=0.27u l=0.05u pd=0.64u ps=0.64u as=0.03p ad=0.03p
Mupper_pmos1 bl en_bar vdd vdd pmos_vtg m=1 w=0.27u l=0.05u pd=0.64u ps=0.64u as=0.03p ad=0.03p
Mupper_pmos2 br en_bar vdd vdd pmos_vtg m=1 w=0.27u l=0.05u pd=0.64u ps=0.64u as=0.03p ad=0.03p
.ENDS precharge_0

.SUBCKT precharge_array_0 bl_0 br_0 bl_1 br_1 bl_2 br_2 bl_3 br_3 bl_4 br_4 bl_5 br_5 bl_6 br_6 bl_7 br_7 bl_8 br_8 bl_9 br_9 bl_10 br_10 bl_11 br_11 bl_12 br_12 bl_13 br_13 bl_14 br_14 bl_15 br_15 bl_16 br_16 bl_17 br_17 bl_18 br_18 bl_19 br_19 bl_20 br_20 bl_21 br_21 bl_22 br_22 bl_23 br_23 bl_24 br_24 bl_25 br_25 bl_26 br_26 bl_27 br_27 bl_28 br_28 bl_29 br_29 bl_30 br_30 bl_31 br_31 bl_32 br_32 bl_33 br_33 bl_34 br_34 bl_35 br_35 bl_36 br_36 bl_37 br_37 bl_38 br_38 bl_39 br_39 bl_40 br_40 bl_41 br_41 bl_42 br_42 bl_43 br_43 bl_44 br_44 bl_45 br_45 bl_46 br_46 bl_47 br_47 bl_48 br_48 bl_49 br_49 bl_50 br_50 bl_51 br_51 bl_52 br_52 bl_53 br_53 bl_54 br_54 bl_55 br_55 bl_56 br_56 bl_57 br_57 bl_58 br_58 bl_59 br_59 bl_60 br_60 bl_61 br_61 bl_62 br_62 bl_63 br_63 bl_64 br_64 en_bar vdd
* OUTPUT: bl_0 
* OUTPUT: br_0 
* OUTPUT: bl_1 
* OUTPUT: br_1 
* OUTPUT: bl_2 
* OUTPUT: br_2 
* OUTPUT: bl_3 
* OUTPUT: br_3 
* OUTPUT: bl_4 
* OUTPUT: br_4 
* OUTPUT: bl_5 
* OUTPUT: br_5 
* OUTPUT: bl_6 
* OUTPUT: br_6 
* OUTPUT: bl_7 
* OUTPUT: br_7 
* OUTPUT: bl_8 
* OUTPUT: br_8 
* OUTPUT: bl_9 
* OUTPUT: br_9 
* OUTPUT: bl_10 
* OUTPUT: br_10 
* OUTPUT: bl_11 
* OUTPUT: br_11 
* OUTPUT: bl_12 
* OUTPUT: br_12 
* OUTPUT: bl_13 
* OUTPUT: br_13 
* OUTPUT: bl_14 
* OUTPUT: br_14 
* OUTPUT: bl_15 
* OUTPUT: br_15 
* OUTPUT: bl_16 
* OUTPUT: br_16 
* OUTPUT: bl_17 
* OUTPUT: br_17 
* OUTPUT: bl_18 
* OUTPUT: br_18 
* OUTPUT: bl_19 
* OUTPUT: br_19 
* OUTPUT: bl_20 
* OUTPUT: br_20 
* OUTPUT: bl_21 
* OUTPUT: br_21 
* OUTPUT: bl_22 
* OUTPUT: br_22 
* OUTPUT: bl_23 
* OUTPUT: br_23 
* OUTPUT: bl_24 
* OUTPUT: br_24 
* OUTPUT: bl_25 
* OUTPUT: br_25 
* OUTPUT: bl_26 
* OUTPUT: br_26 
* OUTPUT: bl_27 
* OUTPUT: br_27 
* OUTPUT: bl_28 
* OUTPUT: br_28 
* OUTPUT: bl_29 
* OUTPUT: br_29 
* OUTPUT: bl_30 
* OUTPUT: br_30 
* OUTPUT: bl_31 
* OUTPUT: br_31 
* OUTPUT: bl_32 
* OUTPUT: br_32 
* OUTPUT: bl_33 
* OUTPUT: br_33 
* OUTPUT: bl_34 
* OUTPUT: br_34 
* OUTPUT: bl_35 
* OUTPUT: br_35 
* OUTPUT: bl_36 
* OUTPUT: br_36 
* OUTPUT: bl_37 
* OUTPUT: br_37 
* OUTPUT: bl_38 
* OUTPUT: br_38 
* OUTPUT: bl_39 
* OUTPUT: br_39 
* OUTPUT: bl_40 
* OUTPUT: br_40 
* OUTPUT: bl_41 
* OUTPUT: br_41 
* OUTPUT: bl_42 
* OUTPUT: br_42 
* OUTPUT: bl_43 
* OUTPUT: br_43 
* OUTPUT: bl_44 
* OUTPUT: br_44 
* OUTPUT: bl_45 
* OUTPUT: br_45 
* OUTPUT: bl_46 
* OUTPUT: br_46 
* OUTPUT: bl_47 
* OUTPUT: br_47 
* OUTPUT: bl_48 
* OUTPUT: br_48 
* OUTPUT: bl_49 
* OUTPUT: br_49 
* OUTPUT: bl_50 
* OUTPUT: br_50 
* OUTPUT: bl_51 
* OUTPUT: br_51 
* OUTPUT: bl_52 
* OUTPUT: br_52 
* OUTPUT: bl_53 
* OUTPUT: br_53 
* OUTPUT: bl_54 
* OUTPUT: br_54 
* OUTPUT: bl_55 
* OUTPUT: br_55 
* OUTPUT: bl_56 
* OUTPUT: br_56 
* OUTPUT: bl_57 
* OUTPUT: br_57 
* OUTPUT: bl_58 
* OUTPUT: br_58 
* OUTPUT: bl_59 
* OUTPUT: br_59 
* OUTPUT: bl_60 
* OUTPUT: br_60 
* OUTPUT: bl_61 
* OUTPUT: br_61 
* OUTPUT: bl_62 
* OUTPUT: br_62 
* OUTPUT: bl_63 
* OUTPUT: br_63 
* OUTPUT: bl_64 
* OUTPUT: br_64 
* INPUT : en_bar 
* POWER : vdd 
* cols: 65 size: 1 bl: bl br: br
Xpre_column_0 bl_0 br_0 en_bar vdd precharge_0
Xpre_column_1 bl_1 br_1 en_bar vdd precharge_0
Xpre_column_2 bl_2 br_2 en_bar vdd precharge_0
Xpre_column_3 bl_3 br_3 en_bar vdd precharge_0
Xpre_column_4 bl_4 br_4 en_bar vdd precharge_0
Xpre_column_5 bl_5 br_5 en_bar vdd precharge_0
Xpre_column_6 bl_6 br_6 en_bar vdd precharge_0
Xpre_column_7 bl_7 br_7 en_bar vdd precharge_0
Xpre_column_8 bl_8 br_8 en_bar vdd precharge_0
Xpre_column_9 bl_9 br_9 en_bar vdd precharge_0
Xpre_column_10 bl_10 br_10 en_bar vdd precharge_0
Xpre_column_11 bl_11 br_11 en_bar vdd precharge_0
Xpre_column_12 bl_12 br_12 en_bar vdd precharge_0
Xpre_column_13 bl_13 br_13 en_bar vdd precharge_0
Xpre_column_14 bl_14 br_14 en_bar vdd precharge_0
Xpre_column_15 bl_15 br_15 en_bar vdd precharge_0
Xpre_column_16 bl_16 br_16 en_bar vdd precharge_0
Xpre_column_17 bl_17 br_17 en_bar vdd precharge_0
Xpre_column_18 bl_18 br_18 en_bar vdd precharge_0
Xpre_column_19 bl_19 br_19 en_bar vdd precharge_0
Xpre_column_20 bl_20 br_20 en_bar vdd precharge_0
Xpre_column_21 bl_21 br_21 en_bar vdd precharge_0
Xpre_column_22 bl_22 br_22 en_bar vdd precharge_0
Xpre_column_23 bl_23 br_23 en_bar vdd precharge_0
Xpre_column_24 bl_24 br_24 en_bar vdd precharge_0
Xpre_column_25 bl_25 br_25 en_bar vdd precharge_0
Xpre_column_26 bl_26 br_26 en_bar vdd precharge_0
Xpre_column_27 bl_27 br_27 en_bar vdd precharge_0
Xpre_column_28 bl_28 br_28 en_bar vdd precharge_0
Xpre_column_29 bl_29 br_29 en_bar vdd precharge_0
Xpre_column_30 bl_30 br_30 en_bar vdd precharge_0
Xpre_column_31 bl_31 br_31 en_bar vdd precharge_0
Xpre_column_32 bl_32 br_32 en_bar vdd precharge_0
Xpre_column_33 bl_33 br_33 en_bar vdd precharge_0
Xpre_column_34 bl_34 br_34 en_bar vdd precharge_0
Xpre_column_35 bl_35 br_35 en_bar vdd precharge_0
Xpre_column_36 bl_36 br_36 en_bar vdd precharge_0
Xpre_column_37 bl_37 br_37 en_bar vdd precharge_0
Xpre_column_38 bl_38 br_38 en_bar vdd precharge_0
Xpre_column_39 bl_39 br_39 en_bar vdd precharge_0
Xpre_column_40 bl_40 br_40 en_bar vdd precharge_0
Xpre_column_41 bl_41 br_41 en_bar vdd precharge_0
Xpre_column_42 bl_42 br_42 en_bar vdd precharge_0
Xpre_column_43 bl_43 br_43 en_bar vdd precharge_0
Xpre_column_44 bl_44 br_44 en_bar vdd precharge_0
Xpre_column_45 bl_45 br_45 en_bar vdd precharge_0
Xpre_column_46 bl_46 br_46 en_bar vdd precharge_0
Xpre_column_47 bl_47 br_47 en_bar vdd precharge_0
Xpre_column_48 bl_48 br_48 en_bar vdd precharge_0
Xpre_column_49 bl_49 br_49 en_bar vdd precharge_0
Xpre_column_50 bl_50 br_50 en_bar vdd precharge_0
Xpre_column_51 bl_51 br_51 en_bar vdd precharge_0
Xpre_column_52 bl_52 br_52 en_bar vdd precharge_0
Xpre_column_53 bl_53 br_53 en_bar vdd precharge_0
Xpre_column_54 bl_54 br_54 en_bar vdd precharge_0
Xpre_column_55 bl_55 br_55 en_bar vdd precharge_0
Xpre_column_56 bl_56 br_56 en_bar vdd precharge_0
Xpre_column_57 bl_57 br_57 en_bar vdd precharge_0
Xpre_column_58 bl_58 br_58 en_bar vdd precharge_0
Xpre_column_59 bl_59 br_59 en_bar vdd precharge_0
Xpre_column_60 bl_60 br_60 en_bar vdd precharge_0
Xpre_column_61 bl_61 br_61 en_bar vdd precharge_0
Xpre_column_62 bl_62 br_62 en_bar vdd precharge_0
Xpre_column_63 bl_63 br_63 en_bar vdd precharge_0
Xpre_column_64 bl_64 br_64 en_bar vdd precharge_0
.ENDS precharge_array_0

.SUBCKT sense_amp bl br dout en vdd gnd
M_1 dout net_1 vdd vdd pmos_vtg w=540.0n l=50.0n
M_3 net_1 dout vdd vdd pmos_vtg w=540.0n l=50.0n
M_2 dout net_1 net_2 gnd nmos_vtg w=270.0n l=50.0n
M_8 net_1 dout net_2 gnd nmos_vtg w=270.0n l=50.0n
M_5 bl en dout vdd pmos_vtg w=720.0n l=50.0n
M_6 br en net_1 vdd pmos_vtg w=720.0n l=50.0n
M_7 net_2 en gnd gnd nmos_vtg w=270.0n l=50.0n
.ENDS sense_amp


.SUBCKT sense_amp_array_0 data_0 bl_0 br_0 data_1 bl_1 br_1 data_2 bl_2 br_2 data_3 bl_3 br_3 data_4 bl_4 br_4 data_5 bl_5 br_5 data_6 bl_6 br_6 data_7 bl_7 br_7 en vdd gnd
* OUTPUT: data_0 
* INPUT : bl_0 
* INPUT : br_0 
* OUTPUT: data_1 
* INPUT : bl_1 
* INPUT : br_1 
* OUTPUT: data_2 
* INPUT : bl_2 
* INPUT : br_2 
* OUTPUT: data_3 
* INPUT : bl_3 
* INPUT : br_3 
* OUTPUT: data_4 
* INPUT : bl_4 
* INPUT : br_4 
* OUTPUT: data_5 
* INPUT : bl_5 
* INPUT : br_5 
* OUTPUT: data_6 
* INPUT : bl_6 
* INPUT : br_6 
* OUTPUT: data_7 
* INPUT : bl_7 
* INPUT : br_7 
* INPUT : en 
* POWER : vdd 
* GROUND: gnd 
* words_per_row: 8
Xsa_d0 bl_0 br_0 data_0 en vdd gnd sense_amp
Xsa_d1 bl_1 br_1 data_1 en vdd gnd sense_amp
Xsa_d2 bl_2 br_2 data_2 en vdd gnd sense_amp
Xsa_d3 bl_3 br_3 data_3 en vdd gnd sense_amp
Xsa_d4 bl_4 br_4 data_4 en vdd gnd sense_amp
Xsa_d5 bl_5 br_5 data_5 en vdd gnd sense_amp
Xsa_d6 bl_6 br_6 data_6 en vdd gnd sense_amp
Xsa_d7 bl_7 br_7 data_7 en vdd gnd sense_amp
.ENDS sense_amp_array_0

* ptx M{0} {1} nmos_vtg m=1 w=0.72u l=0.05u pd=1.54u ps=1.54u as=0.09p ad=0.09p

.SUBCKT single_level_column_mux_0 bl br bl_out br_out sel gnd
* INOUT : bl 
* INOUT : br 
* INOUT : bl_out 
* INOUT : br_out 
* INOUT : sel 
* INOUT : gnd 
Mmux_tx1 bl sel bl_out gnd nmos_vtg m=1 w=0.72u l=0.05u pd=1.54u ps=1.54u as=0.09p ad=0.09p
Mmux_tx2 br sel br_out gnd nmos_vtg m=1 w=0.72u l=0.05u pd=1.54u ps=1.54u as=0.09p ad=0.09p
.ENDS single_level_column_mux_0

.SUBCKT single_level_column_mux_array_0 bl_0 br_0 bl_1 br_1 bl_2 br_2 bl_3 br_3 bl_4 br_4 bl_5 br_5 bl_6 br_6 bl_7 br_7 bl_8 br_8 bl_9 br_9 bl_10 br_10 bl_11 br_11 bl_12 br_12 bl_13 br_13 bl_14 br_14 bl_15 br_15 bl_16 br_16 bl_17 br_17 bl_18 br_18 bl_19 br_19 bl_20 br_20 bl_21 br_21 bl_22 br_22 bl_23 br_23 bl_24 br_24 bl_25 br_25 bl_26 br_26 bl_27 br_27 bl_28 br_28 bl_29 br_29 bl_30 br_30 bl_31 br_31 bl_32 br_32 bl_33 br_33 bl_34 br_34 bl_35 br_35 bl_36 br_36 bl_37 br_37 bl_38 br_38 bl_39 br_39 bl_40 br_40 bl_41 br_41 bl_42 br_42 bl_43 br_43 bl_44 br_44 bl_45 br_45 bl_46 br_46 bl_47 br_47 bl_48 br_48 bl_49 br_49 bl_50 br_50 bl_51 br_51 bl_52 br_52 bl_53 br_53 bl_54 br_54 bl_55 br_55 bl_56 br_56 bl_57 br_57 bl_58 br_58 bl_59 br_59 bl_60 br_60 bl_61 br_61 bl_62 br_62 bl_63 br_63 sel_0 sel_1 sel_2 sel_3 sel_4 sel_5 sel_6 sel_7 bl_out_0 br_out_0 bl_out_1 br_out_1 bl_out_2 br_out_2 bl_out_3 br_out_3 bl_out_4 br_out_4 bl_out_5 br_out_5 bl_out_6 br_out_6 bl_out_7 br_out_7 gnd
* INOUT : bl_0 
* INOUT : br_0 
* INOUT : bl_1 
* INOUT : br_1 
* INOUT : bl_2 
* INOUT : br_2 
* INOUT : bl_3 
* INOUT : br_3 
* INOUT : bl_4 
* INOUT : br_4 
* INOUT : bl_5 
* INOUT : br_5 
* INOUT : bl_6 
* INOUT : br_6 
* INOUT : bl_7 
* INOUT : br_7 
* INOUT : bl_8 
* INOUT : br_8 
* INOUT : bl_9 
* INOUT : br_9 
* INOUT : bl_10 
* INOUT : br_10 
* INOUT : bl_11 
* INOUT : br_11 
* INOUT : bl_12 
* INOUT : br_12 
* INOUT : bl_13 
* INOUT : br_13 
* INOUT : bl_14 
* INOUT : br_14 
* INOUT : bl_15 
* INOUT : br_15 
* INOUT : bl_16 
* INOUT : br_16 
* INOUT : bl_17 
* INOUT : br_17 
* INOUT : bl_18 
* INOUT : br_18 
* INOUT : bl_19 
* INOUT : br_19 
* INOUT : bl_20 
* INOUT : br_20 
* INOUT : bl_21 
* INOUT : br_21 
* INOUT : bl_22 
* INOUT : br_22 
* INOUT : bl_23 
* INOUT : br_23 
* INOUT : bl_24 
* INOUT : br_24 
* INOUT : bl_25 
* INOUT : br_25 
* INOUT : bl_26 
* INOUT : br_26 
* INOUT : bl_27 
* INOUT : br_27 
* INOUT : bl_28 
* INOUT : br_28 
* INOUT : bl_29 
* INOUT : br_29 
* INOUT : bl_30 
* INOUT : br_30 
* INOUT : bl_31 
* INOUT : br_31 
* INOUT : bl_32 
* INOUT : br_32 
* INOUT : bl_33 
* INOUT : br_33 
* INOUT : bl_34 
* INOUT : br_34 
* INOUT : bl_35 
* INOUT : br_35 
* INOUT : bl_36 
* INOUT : br_36 
* INOUT : bl_37 
* INOUT : br_37 
* INOUT : bl_38 
* INOUT : br_38 
* INOUT : bl_39 
* INOUT : br_39 
* INOUT : bl_40 
* INOUT : br_40 
* INOUT : bl_41 
* INOUT : br_41 
* INOUT : bl_42 
* INOUT : br_42 
* INOUT : bl_43 
* INOUT : br_43 
* INOUT : bl_44 
* INOUT : br_44 
* INOUT : bl_45 
* INOUT : br_45 
* INOUT : bl_46 
* INOUT : br_46 
* INOUT : bl_47 
* INOUT : br_47 
* INOUT : bl_48 
* INOUT : br_48 
* INOUT : bl_49 
* INOUT : br_49 
* INOUT : bl_50 
* INOUT : br_50 
* INOUT : bl_51 
* INOUT : br_51 
* INOUT : bl_52 
* INOUT : br_52 
* INOUT : bl_53 
* INOUT : br_53 
* INOUT : bl_54 
* INOUT : br_54 
* INOUT : bl_55 
* INOUT : br_55 
* INOUT : bl_56 
* INOUT : br_56 
* INOUT : bl_57 
* INOUT : br_57 
* INOUT : bl_58 
* INOUT : br_58 
* INOUT : bl_59 
* INOUT : br_59 
* INOUT : bl_60 
* INOUT : br_60 
* INOUT : bl_61 
* INOUT : br_61 
* INOUT : bl_62 
* INOUT : br_62 
* INOUT : bl_63 
* INOUT : br_63 
* INOUT : sel_0 
* INOUT : sel_1 
* INOUT : sel_2 
* INOUT : sel_3 
* INOUT : sel_4 
* INOUT : sel_5 
* INOUT : sel_6 
* INOUT : sel_7 
* INOUT : bl_out_0 
* INOUT : br_out_0 
* INOUT : bl_out_1 
* INOUT : br_out_1 
* INOUT : bl_out_2 
* INOUT : br_out_2 
* INOUT : bl_out_3 
* INOUT : br_out_3 
* INOUT : bl_out_4 
* INOUT : br_out_4 
* INOUT : bl_out_5 
* INOUT : br_out_5 
* INOUT : bl_out_6 
* INOUT : br_out_6 
* INOUT : bl_out_7 
* INOUT : br_out_7 
* INOUT : gnd 
* cols: 64 word_size: 8 bl: bl br: br
XXMUX0 bl_0 br_0 bl_out_0 br_out_0 sel_0 gnd single_level_column_mux_0
XXMUX1 bl_1 br_1 bl_out_0 br_out_0 sel_1 gnd single_level_column_mux_0
XXMUX2 bl_2 br_2 bl_out_0 br_out_0 sel_2 gnd single_level_column_mux_0
XXMUX3 bl_3 br_3 bl_out_0 br_out_0 sel_3 gnd single_level_column_mux_0
XXMUX4 bl_4 br_4 bl_out_0 br_out_0 sel_4 gnd single_level_column_mux_0
XXMUX5 bl_5 br_5 bl_out_0 br_out_0 sel_5 gnd single_level_column_mux_0
XXMUX6 bl_6 br_6 bl_out_0 br_out_0 sel_6 gnd single_level_column_mux_0
XXMUX7 bl_7 br_7 bl_out_0 br_out_0 sel_7 gnd single_level_column_mux_0
XXMUX8 bl_8 br_8 bl_out_1 br_out_1 sel_0 gnd single_level_column_mux_0
XXMUX9 bl_9 br_9 bl_out_1 br_out_1 sel_1 gnd single_level_column_mux_0
XXMUX10 bl_10 br_10 bl_out_1 br_out_1 sel_2 gnd single_level_column_mux_0
XXMUX11 bl_11 br_11 bl_out_1 br_out_1 sel_3 gnd single_level_column_mux_0
XXMUX12 bl_12 br_12 bl_out_1 br_out_1 sel_4 gnd single_level_column_mux_0
XXMUX13 bl_13 br_13 bl_out_1 br_out_1 sel_5 gnd single_level_column_mux_0
XXMUX14 bl_14 br_14 bl_out_1 br_out_1 sel_6 gnd single_level_column_mux_0
XXMUX15 bl_15 br_15 bl_out_1 br_out_1 sel_7 gnd single_level_column_mux_0
XXMUX16 bl_16 br_16 bl_out_2 br_out_2 sel_0 gnd single_level_column_mux_0
XXMUX17 bl_17 br_17 bl_out_2 br_out_2 sel_1 gnd single_level_column_mux_0
XXMUX18 bl_18 br_18 bl_out_2 br_out_2 sel_2 gnd single_level_column_mux_0
XXMUX19 bl_19 br_19 bl_out_2 br_out_2 sel_3 gnd single_level_column_mux_0
XXMUX20 bl_20 br_20 bl_out_2 br_out_2 sel_4 gnd single_level_column_mux_0
XXMUX21 bl_21 br_21 bl_out_2 br_out_2 sel_5 gnd single_level_column_mux_0
XXMUX22 bl_22 br_22 bl_out_2 br_out_2 sel_6 gnd single_level_column_mux_0
XXMUX23 bl_23 br_23 bl_out_2 br_out_2 sel_7 gnd single_level_column_mux_0
XXMUX24 bl_24 br_24 bl_out_3 br_out_3 sel_0 gnd single_level_column_mux_0
XXMUX25 bl_25 br_25 bl_out_3 br_out_3 sel_1 gnd single_level_column_mux_0
XXMUX26 bl_26 br_26 bl_out_3 br_out_3 sel_2 gnd single_level_column_mux_0
XXMUX27 bl_27 br_27 bl_out_3 br_out_3 sel_3 gnd single_level_column_mux_0
XXMUX28 bl_28 br_28 bl_out_3 br_out_3 sel_4 gnd single_level_column_mux_0
XXMUX29 bl_29 br_29 bl_out_3 br_out_3 sel_5 gnd single_level_column_mux_0
XXMUX30 bl_30 br_30 bl_out_3 br_out_3 sel_6 gnd single_level_column_mux_0
XXMUX31 bl_31 br_31 bl_out_3 br_out_3 sel_7 gnd single_level_column_mux_0
XXMUX32 bl_32 br_32 bl_out_4 br_out_4 sel_0 gnd single_level_column_mux_0
XXMUX33 bl_33 br_33 bl_out_4 br_out_4 sel_1 gnd single_level_column_mux_0
XXMUX34 bl_34 br_34 bl_out_4 br_out_4 sel_2 gnd single_level_column_mux_0
XXMUX35 bl_35 br_35 bl_out_4 br_out_4 sel_3 gnd single_level_column_mux_0
XXMUX36 bl_36 br_36 bl_out_4 br_out_4 sel_4 gnd single_level_column_mux_0
XXMUX37 bl_37 br_37 bl_out_4 br_out_4 sel_5 gnd single_level_column_mux_0
XXMUX38 bl_38 br_38 bl_out_4 br_out_4 sel_6 gnd single_level_column_mux_0
XXMUX39 bl_39 br_39 bl_out_4 br_out_4 sel_7 gnd single_level_column_mux_0
XXMUX40 bl_40 br_40 bl_out_5 br_out_5 sel_0 gnd single_level_column_mux_0
XXMUX41 bl_41 br_41 bl_out_5 br_out_5 sel_1 gnd single_level_column_mux_0
XXMUX42 bl_42 br_42 bl_out_5 br_out_5 sel_2 gnd single_level_column_mux_0
XXMUX43 bl_43 br_43 bl_out_5 br_out_5 sel_3 gnd single_level_column_mux_0
XXMUX44 bl_44 br_44 bl_out_5 br_out_5 sel_4 gnd single_level_column_mux_0
XXMUX45 bl_45 br_45 bl_out_5 br_out_5 sel_5 gnd single_level_column_mux_0
XXMUX46 bl_46 br_46 bl_out_5 br_out_5 sel_6 gnd single_level_column_mux_0
XXMUX47 bl_47 br_47 bl_out_5 br_out_5 sel_7 gnd single_level_column_mux_0
XXMUX48 bl_48 br_48 bl_out_6 br_out_6 sel_0 gnd single_level_column_mux_0
XXMUX49 bl_49 br_49 bl_out_6 br_out_6 sel_1 gnd single_level_column_mux_0
XXMUX50 bl_50 br_50 bl_out_6 br_out_6 sel_2 gnd single_level_column_mux_0
XXMUX51 bl_51 br_51 bl_out_6 br_out_6 sel_3 gnd single_level_column_mux_0
XXMUX52 bl_52 br_52 bl_out_6 br_out_6 sel_4 gnd single_level_column_mux_0
XXMUX53 bl_53 br_53 bl_out_6 br_out_6 sel_5 gnd single_level_column_mux_0
XXMUX54 bl_54 br_54 bl_out_6 br_out_6 sel_6 gnd single_level_column_mux_0
XXMUX55 bl_55 br_55 bl_out_6 br_out_6 sel_7 gnd single_level_column_mux_0
XXMUX56 bl_56 br_56 bl_out_7 br_out_7 sel_0 gnd single_level_column_mux_0
XXMUX57 bl_57 br_57 bl_out_7 br_out_7 sel_1 gnd single_level_column_mux_0
XXMUX58 bl_58 br_58 bl_out_7 br_out_7 sel_2 gnd single_level_column_mux_0
XXMUX59 bl_59 br_59 bl_out_7 br_out_7 sel_3 gnd single_level_column_mux_0
XXMUX60 bl_60 br_60 bl_out_7 br_out_7 sel_4 gnd single_level_column_mux_0
XXMUX61 bl_61 br_61 bl_out_7 br_out_7 sel_5 gnd single_level_column_mux_0
XXMUX62 bl_62 br_62 bl_out_7 br_out_7 sel_6 gnd single_level_column_mux_0
XXMUX63 bl_63 br_63 bl_out_7 br_out_7 sel_7 gnd single_level_column_mux_0
.ENDS single_level_column_mux_array_0

.SUBCKT write_driver din bl br en vdd gnd
*inverters for enable and data input
minP bl_bar din vdd vdd pmos_vtg w=360.000000n l=50.000000n
minN bl_bar din gnd gnd nmos_vtg w=180.000000n l=50.000000n
moutP en_bar en vdd vdd pmos_vtg w=360.000000n l=50.000000n
moutN en_bar en gnd gnd nmos_vtg w=180.000000n l=50.000000n

*tristate for BL
mout0P int1 bl_bar vdd vdd pmos_vtg w=360.000000n l=50.000000n
mout0P2 bl en_bar int1 vdd pmos_vtg w=360.000000n l=50.000000n
mout0N bl en int2 gnd nmos_vtg w=180.000000n l=50.000000n
mout0N2 int2 bl_bar gnd gnd nmos_vtg w=180.000000n l=50.000000n

*tristate for BR
mout1P int3 din vdd vdd pmos_vtg w=360.000000n l=50.000000n
mout1P2 br en_bar int3 vdd pmos_vtg w=360.000000n l=50.000000n
mout1N br en int4 gnd nmos_vtg w=180.000000n l=50.000000n
mout1N2 int4 din gnd gnd nmos_vtg w=180.000000n l=50.000000n
.ENDS write_driver


.SUBCKT write_driver_array_0 data_0 data_1 data_2 data_3 data_4 data_5 data_6 data_7 bl_0 br_0 bl_1 br_1 bl_2 br_2 bl_3 br_3 bl_4 br_4 bl_5 br_5 bl_6 br_6 bl_7 br_7 en vdd gnd
* INPUT : data_0 
* INPUT : data_1 
* INPUT : data_2 
* INPUT : data_3 
* INPUT : data_4 
* INPUT : data_5 
* INPUT : data_6 
* INPUT : data_7 
* OUTPUT: bl_0 
* OUTPUT: br_0 
* OUTPUT: bl_1 
* OUTPUT: br_1 
* OUTPUT: bl_2 
* OUTPUT: br_2 
* OUTPUT: bl_3 
* OUTPUT: br_3 
* OUTPUT: bl_4 
* OUTPUT: br_4 
* OUTPUT: bl_5 
* OUTPUT: br_5 
* OUTPUT: bl_6 
* OUTPUT: br_6 
* OUTPUT: bl_7 
* OUTPUT: br_7 
* INPUT : en 
* POWER : vdd 
* GROUND: gnd 
* word_size 8
Xwrite_driver0 data_0 bl_0 br_0 en vdd gnd write_driver
Xwrite_driver8 data_1 bl_1 br_1 en vdd gnd write_driver
Xwrite_driver16 data_2 bl_2 br_2 en vdd gnd write_driver
Xwrite_driver24 data_3 bl_3 br_3 en vdd gnd write_driver
Xwrite_driver32 data_4 bl_4 br_4 en vdd gnd write_driver
Xwrite_driver40 data_5 bl_5 br_5 en vdd gnd write_driver
Xwrite_driver48 data_6 bl_6 br_6 en vdd gnd write_driver
Xwrite_driver56 data_7 bl_7 br_7 en vdd gnd write_driver
.ENDS write_driver_array_0

.SUBCKT port_data_0 rbl_bl rbl_br bl_0 br_0 bl_1 br_1 bl_2 br_2 bl_3 br_3 bl_4 br_4 bl_5 br_5 bl_6 br_6 bl_7 br_7 bl_8 br_8 bl_9 br_9 bl_10 br_10 bl_11 br_11 bl_12 br_12 bl_13 br_13 bl_14 br_14 bl_15 br_15 bl_16 br_16 bl_17 br_17 bl_18 br_18 bl_19 br_19 bl_20 br_20 bl_21 br_21 bl_22 br_22 bl_23 br_23 bl_24 br_24 bl_25 br_25 bl_26 br_26 bl_27 br_27 bl_28 br_28 bl_29 br_29 bl_30 br_30 bl_31 br_31 bl_32 br_32 bl_33 br_33 bl_34 br_34 bl_35 br_35 bl_36 br_36 bl_37 br_37 bl_38 br_38 bl_39 br_39 bl_40 br_40 bl_41 br_41 bl_42 br_42 bl_43 br_43 bl_44 br_44 bl_45 br_45 bl_46 br_46 bl_47 br_47 bl_48 br_48 bl_49 br_49 bl_50 br_50 bl_51 br_51 bl_52 br_52 bl_53 br_53 bl_54 br_54 bl_55 br_55 bl_56 br_56 bl_57 br_57 bl_58 br_58 bl_59 br_59 bl_60 br_60 bl_61 br_61 bl_62 br_62 bl_63 br_63 dout_0 dout_1 dout_2 dout_3 dout_4 dout_5 dout_6 dout_7 din_0 din_1 din_2 din_3 din_4 din_5 din_6 din_7 sel_0 sel_1 sel_2 sel_3 sel_4 sel_5 sel_6 sel_7 s_en p_en_bar w_en vdd gnd
* INOUT : rbl_bl 
* INOUT : rbl_br 
* INOUT : bl_0 
* INOUT : br_0 
* INOUT : bl_1 
* INOUT : br_1 
* INOUT : bl_2 
* INOUT : br_2 
* INOUT : bl_3 
* INOUT : br_3 
* INOUT : bl_4 
* INOUT : br_4 
* INOUT : bl_5 
* INOUT : br_5 
* INOUT : bl_6 
* INOUT : br_6 
* INOUT : bl_7 
* INOUT : br_7 
* INOUT : bl_8 
* INOUT : br_8 
* INOUT : bl_9 
* INOUT : br_9 
* INOUT : bl_10 
* INOUT : br_10 
* INOUT : bl_11 
* INOUT : br_11 
* INOUT : bl_12 
* INOUT : br_12 
* INOUT : bl_13 
* INOUT : br_13 
* INOUT : bl_14 
* INOUT : br_14 
* INOUT : bl_15 
* INOUT : br_15 
* INOUT : bl_16 
* INOUT : br_16 
* INOUT : bl_17 
* INOUT : br_17 
* INOUT : bl_18 
* INOUT : br_18 
* INOUT : bl_19 
* INOUT : br_19 
* INOUT : bl_20 
* INOUT : br_20 
* INOUT : bl_21 
* INOUT : br_21 
* INOUT : bl_22 
* INOUT : br_22 
* INOUT : bl_23 
* INOUT : br_23 
* INOUT : bl_24 
* INOUT : br_24 
* INOUT : bl_25 
* INOUT : br_25 
* INOUT : bl_26 
* INOUT : br_26 
* INOUT : bl_27 
* INOUT : br_27 
* INOUT : bl_28 
* INOUT : br_28 
* INOUT : bl_29 
* INOUT : br_29 
* INOUT : bl_30 
* INOUT : br_30 
* INOUT : bl_31 
* INOUT : br_31 
* INOUT : bl_32 
* INOUT : br_32 
* INOUT : bl_33 
* INOUT : br_33 
* INOUT : bl_34 
* INOUT : br_34 
* INOUT : bl_35 
* INOUT : br_35 
* INOUT : bl_36 
* INOUT : br_36 
* INOUT : bl_37 
* INOUT : br_37 
* INOUT : bl_38 
* INOUT : br_38 
* INOUT : bl_39 
* INOUT : br_39 
* INOUT : bl_40 
* INOUT : br_40 
* INOUT : bl_41 
* INOUT : br_41 
* INOUT : bl_42 
* INOUT : br_42 
* INOUT : bl_43 
* INOUT : br_43 
* INOUT : bl_44 
* INOUT : br_44 
* INOUT : bl_45 
* INOUT : br_45 
* INOUT : bl_46 
* INOUT : br_46 
* INOUT : bl_47 
* INOUT : br_47 
* INOUT : bl_48 
* INOUT : br_48 
* INOUT : bl_49 
* INOUT : br_49 
* INOUT : bl_50 
* INOUT : br_50 
* INOUT : bl_51 
* INOUT : br_51 
* INOUT : bl_52 
* INOUT : br_52 
* INOUT : bl_53 
* INOUT : br_53 
* INOUT : bl_54 
* INOUT : br_54 
* INOUT : bl_55 
* INOUT : br_55 
* INOUT : bl_56 
* INOUT : br_56 
* INOUT : bl_57 
* INOUT : br_57 
* INOUT : bl_58 
* INOUT : br_58 
* INOUT : bl_59 
* INOUT : br_59 
* INOUT : bl_60 
* INOUT : br_60 
* INOUT : bl_61 
* INOUT : br_61 
* INOUT : bl_62 
* INOUT : br_62 
* INOUT : bl_63 
* INOUT : br_63 
* OUTPUT: dout_0 
* OUTPUT: dout_1 
* OUTPUT: dout_2 
* OUTPUT: dout_3 
* OUTPUT: dout_4 
* OUTPUT: dout_5 
* OUTPUT: dout_6 
* OUTPUT: dout_7 
* INPUT : din_0 
* INPUT : din_1 
* INPUT : din_2 
* INPUT : din_3 
* INPUT : din_4 
* INPUT : din_5 
* INPUT : din_6 
* INPUT : din_7 
* INPUT : sel_0 
* INPUT : sel_1 
* INPUT : sel_2 
* INPUT : sel_3 
* INPUT : sel_4 
* INPUT : sel_5 
* INPUT : sel_6 
* INPUT : sel_7 
* INPUT : s_en 
* INPUT : p_en_bar 
* INPUT : w_en 
* POWER : vdd 
* GROUND: gnd 
Xprecharge_array0 rbl_bl rbl_br bl_0 br_0 bl_1 br_1 bl_2 br_2 bl_3 br_3 bl_4 br_4 bl_5 br_5 bl_6 br_6 bl_7 br_7 bl_8 br_8 bl_9 br_9 bl_10 br_10 bl_11 br_11 bl_12 br_12 bl_13 br_13 bl_14 br_14 bl_15 br_15 bl_16 br_16 bl_17 br_17 bl_18 br_18 bl_19 br_19 bl_20 br_20 bl_21 br_21 bl_22 br_22 bl_23 br_23 bl_24 br_24 bl_25 br_25 bl_26 br_26 bl_27 br_27 bl_28 br_28 bl_29 br_29 bl_30 br_30 bl_31 br_31 bl_32 br_32 bl_33 br_33 bl_34 br_34 bl_35 br_35 bl_36 br_36 bl_37 br_37 bl_38 br_38 bl_39 br_39 bl_40 br_40 bl_41 br_41 bl_42 br_42 bl_43 br_43 bl_44 br_44 bl_45 br_45 bl_46 br_46 bl_47 br_47 bl_48 br_48 bl_49 br_49 bl_50 br_50 bl_51 br_51 bl_52 br_52 bl_53 br_53 bl_54 br_54 bl_55 br_55 bl_56 br_56 bl_57 br_57 bl_58 br_58 bl_59 br_59 bl_60 br_60 bl_61 br_61 bl_62 br_62 bl_63 br_63 p_en_bar vdd precharge_array_0
Xsense_amp_array0 dout_0 bl_out_0 br_out_0 dout_1 bl_out_1 br_out_1 dout_2 bl_out_2 br_out_2 dout_3 bl_out_3 br_out_3 dout_4 bl_out_4 br_out_4 dout_5 bl_out_5 br_out_5 dout_6 bl_out_6 br_out_6 dout_7 bl_out_7 br_out_7 s_en vdd gnd sense_amp_array_0
Xwrite_driver_array0 din_0 din_1 din_2 din_3 din_4 din_5 din_6 din_7 bl_out_0 br_out_0 bl_out_1 br_out_1 bl_out_2 br_out_2 bl_out_3 br_out_3 bl_out_4 br_out_4 bl_out_5 br_out_5 bl_out_6 br_out_6 bl_out_7 br_out_7 w_en vdd gnd write_driver_array_0
Xcolumn_mux_array0 bl_0 br_0 bl_1 br_1 bl_2 br_2 bl_3 br_3 bl_4 br_4 bl_5 br_5 bl_6 br_6 bl_7 br_7 bl_8 br_8 bl_9 br_9 bl_10 br_10 bl_11 br_11 bl_12 br_12 bl_13 br_13 bl_14 br_14 bl_15 br_15 bl_16 br_16 bl_17 br_17 bl_18 br_18 bl_19 br_19 bl_20 br_20 bl_21 br_21 bl_22 br_22 bl_23 br_23 bl_24 br_24 bl_25 br_25 bl_26 br_26 bl_27 br_27 bl_28 br_28 bl_29 br_29 bl_30 br_30 bl_31 br_31 bl_32 br_32 bl_33 br_33 bl_34 br_34 bl_35 br_35 bl_36 br_36 bl_37 br_37 bl_38 br_38 bl_39 br_39 bl_40 br_40 bl_41 br_41 bl_42 br_42 bl_43 br_43 bl_44 br_44 bl_45 br_45 bl_46 br_46 bl_47 br_47 bl_48 br_48 bl_49 br_49 bl_50 br_50 bl_51 br_51 bl_52 br_52 bl_53 br_53 bl_54 br_54 bl_55 br_55 bl_56 br_56 bl_57 br_57 bl_58 br_58 bl_59 br_59 bl_60 br_60 bl_61 br_61 bl_62 br_62 bl_63 br_63 sel_0 sel_1 sel_2 sel_3 sel_4 sel_5 sel_6 sel_7 bl_out_0 br_out_0 bl_out_1 br_out_1 bl_out_2 br_out_2 bl_out_3 br_out_3 bl_out_4 br_out_4 bl_out_5 br_out_5 bl_out_6 br_out_6 bl_out_7 br_out_7 gnd single_level_column_mux_array_0
.ENDS port_data_0

* ptx M{0} {1} nmos_vtg m=1 w=0.09u l=0.05u pd=0.28u ps=0.28u as=0.01p ad=0.01p

* ptx M{0} {1} pmos_vtg m=1 w=0.27u l=0.05u pd=0.64u ps=0.64u as=0.03p ad=0.03p

.SUBCKT pinv_0 A Z vdd gnd
* INPUT : A 
* OUTPUT: Z 
* POWER : vdd 
* GROUND: gnd 
Mpinv_pmos Z A vdd vdd pmos_vtg m=1 w=0.27u l=0.05u pd=0.64u ps=0.64u as=0.03p ad=0.03p
Mpinv_nmos Z A gnd gnd nmos_vtg m=1 w=0.09u l=0.05u pd=0.28u ps=0.28u as=0.01p ad=0.01p
.ENDS pinv_0

* ptx M{0} {1} nmos_vtg m=1 w=0.18u l=0.05u pd=0.46u ps=0.46u as=0.02p ad=0.02p

.SUBCKT pnand2_0 A B Z vdd gnd
* INPUT : A 
* INPUT : B 
* OUTPUT: Z 
* POWER : vdd 
* GROUND: gnd 
Mpnand2_pmos1 vdd A Z vdd pmos_vtg m=1 w=0.27u l=0.05u pd=0.64u ps=0.64u as=0.03p ad=0.03p
Mpnand2_pmos2 Z B vdd vdd pmos_vtg m=1 w=0.27u l=0.05u pd=0.64u ps=0.64u as=0.03p ad=0.03p
Mpnand2_nmos1 Z B net1 gnd nmos_vtg m=1 w=0.18u l=0.05u pd=0.46u ps=0.46u as=0.02p ad=0.02p
Mpnand2_nmos2 net1 A gnd gnd nmos_vtg m=1 w=0.18u l=0.05u pd=0.46u ps=0.46u as=0.02p ad=0.02p
.ENDS pnand2_0

.SUBCKT pnand3_0 A B C Z vdd gnd
* INPUT : A 
* INPUT : B 
* INPUT : C 
* OUTPUT: Z 
* POWER : vdd 
* GROUND: gnd 
Mpnand3_pmos1 vdd A Z vdd pmos_vtg m=1 w=0.27u l=0.05u pd=0.64u ps=0.64u as=0.03p ad=0.03p
Mpnand3_pmos2 Z B vdd vdd pmos_vtg m=1 w=0.27u l=0.05u pd=0.64u ps=0.64u as=0.03p ad=0.03p